Using: /usr/bin/time -p /usr/synopsys/I-2013.12-SP1-1/hspice/amd64/hspice  spice.in
